examples/feeders/123Bus/ieee123_Power_elem_kVA.txt

CIRCUIT ELEMENT POWER FLOW

(Power Flow into element from indicated Bus)

Power Delivery Elements

  Bus    Phase     kW     +j   kvar         kVA         PF

ELEMENT = "Vsource.SOURCE"
150          1     -1617.7 +j   -681.7     1755.5       0.9215
150          2     -1163.9 +j   -464.8     1253.3       0.9287
150          3     -1407.8 +j   -529.4     1504.0       0.9360
   TERMINAL TOTAL  -4189.4 +j  -1675.9     4512.1       0.9285
150          0         0.0 +j      0.0        0.0       1.0000
150          0         0.0 +j      0.0        0.0       1.0000
150          0         0.0 +j      0.0        0.0       1.0000
   TERMINAL TOTAL      0.0 +j      0.0        0.0       1.0000

ELEMENT = "Transformer.REG1A"
150          1      1617.7 +j    681.7     1755.5       0.9215
150          2      1163.9 +j    464.8     1253.3       0.9287
150          3      1407.8 +j    529.4     1504.0       0.9360
150          0         0.0 +j      0.0        0.0       1.0000
   TERMINAL TOTAL   4189.4 +j   1675.9     4512.1       0.9285
150R         1     -1617.7 +j   -681.7     1755.5       0.9215
150R         2     -1163.9 +j   -464.8     1253.3       0.9287
150R         3     -1407.8 +j   -529.4     1504.0       0.9360
150R         0         0.0 +j      0.0        0.0       1.0000
   TERMINAL TOTAL  -4189.4 +j  -1675.9     4512.1       0.9285

ELEMENT = "Line.L115"
149          1      1617.7 +j    681.7     1755.5       0.9215
149          2      1163.9 +j    464.8     1253.3       0.9287
149          3      1407.8 +j    529.4     1504.0       0.9360
   TERMINAL TOTAL   4189.4 +j   1675.9     4512.1       0.9285
1            1     -1604.0 +j   -654.1     1732.3       0.9260
1            2     -1162.0 +j   -455.6     1248.1       0.9310
1            3     -1397.6 +j   -512.5     1488.6       0.9389
   TERMINAL TOTAL  -4163.6 +j  -1622.2     4468.5       0.9318

ELEMENT = "Line.L1"
1            2        26.5 +j     13.3       29.6       0.8944
   TERMINAL TOTAL     26.5 +j     13.3       29.6       0.8944
2            2       -26.5 +j    -13.3       29.6       0.8944
   TERMINAL TOTAL    -26.5 +j    -13.3       29.6       0.8944

ELEMENT = "Line.L2"
1            3       133.5 +j     66.9      149.3       0.8939
   TERMINAL TOTAL    133.5 +j     66.9      149.3       0.8939
3            3      -133.2 +j    -66.7      149.0       0.8942
   TERMINAL TOTAL   -133.2 +j    -66.7      149.0       0.8942

ELEMENT = "Line.L3"
1            1      1566.2 +j    635.2     1690.1       0.9267
1            2      1135.5 +j    442.3     1218.6       0.9318
1            3      1264.1 +j    445.5     1340.3       0.9431
   TERMINAL TOTAL   3965.8 +j   1523.0     4248.2       0.9335
7            1     -1555.7 +j   -615.4     1673.0       0.9299
7            2     -1134.4 +j   -435.2     1215.1       0.9336
7            3     -1258.1 +j   -435.9     1331.5       0.9449
   TERMINAL TOTAL  -3948.2 +j  -1486.6     4218.8       0.9359

ELEMENT = "Line.L4"
3            3        51.7 +j     25.9       57.8       0.8943
   TERMINAL TOTAL     51.7 +j     25.9       57.8       0.8943
4            3       -51.7 +j    -25.8       57.8       0.8944
   TERMINAL TOTAL    -51.7 +j    -25.8       57.8       0.8944

ELEMENT = "Line.L5"
3            3        81.5 +j     40.8       91.2       0.8941
   TERMINAL TOTAL     81.5 +j     40.8       91.2       0.8941
5            3       -81.4 +j    -40.7       91.0       0.8943
   TERMINAL TOTAL    -81.4 +j    -40.7       91.0       0.8943

ELEMENT = "Line.L6"
5            3        54.8 +j     27.4       61.3       0.8943
   TERMINAL TOTAL     54.8 +j     27.4       61.3       0.8943
6            3       -54.8 +j    -27.4       61.2       0.8944
   TERMINAL TOTAL    -54.8 +j    -27.4       61.2       0.8944

ELEMENT = "Line.L7"
7            1      1536.7 +j    606.0     1651.9       0.9303
7            2      1134.4 +j    435.2     1215.1       0.9336
7            3      1258.1 +j    435.9     1331.5       0.9449
   TERMINAL TOTAL   3929.3 +j   1477.1     4197.8       0.9360
8            1     -1529.9 +j   -593.2     1640.9       0.9324
8            2     -1133.7 +j   -430.5     1212.6       0.9349
8            3     -1254.2 +j   -429.4     1325.7       0.9461
   TERMINAL TOTAL  -3917.8 +j  -1453.1     4178.6       0.9376

ELEMENT = "Line.L8"
8            2        26.5 +j     13.3       29.6       0.8944
   TERMINAL TOTAL     26.5 +j     13.3       29.6       0.8944
12           2       -26.5 +j    -13.3       29.6       0.8944
   TERMINAL TOTAL    -26.5 +j    -13.3       29.6       0.8944

ELEMENT = "Line.L9"
8            1        95.2 +j     47.7      106.5       0.8940
   TERMINAL TOTAL     95.2 +j     47.7      106.5       0.8940
9            1       -95.1 +j    -47.6      106.4       0.8943
   TERMINAL TOTAL    -95.1 +j    -47.6      106.4       0.8943

ELEMENT = "Line.L10"
8            1      1434.7 +j    545.5     1534.9       0.9347
8            2      1107.1 +j    417.2     1183.2       0.9358
8            3      1254.2 +j    429.4     1325.7       0.9461
   TERMINAL TOTAL   3796.0 +j   1392.1     4043.3       0.9389
13           1     -1426.1 +j   -529.1     1521.1       0.9375
13           2     -1105.6 +j   -410.6     1179.3       0.9374
13           3     -1248.4 +j   -419.1     1316.9       0.9480
   TERMINAL TOTAL  -3780.0 +j  -1358.8     4016.8       0.9410

ELEMENT = "Line.L11"
9R           1        57.2 +j     28.7       64.0       0.8941
   TERMINAL TOTAL     57.2 +j     28.7       64.0       0.8941
14           1       -57.2 +j    -28.6       63.9       0.8944
   TERMINAL TOTAL    -57.2 +j    -28.6       63.9       0.8944

ELEMENT = "Line.L12"
13           3       131.0 +j     65.6      146.5       0.8941
   TERMINAL TOTAL    131.0 +j     65.6      146.5       0.8941
34           3      -130.8 +j    -65.5      146.3       0.8943
   TERMINAL TOTAL   -130.8 +j    -65.5      146.3       0.8943

ELEMENT = "Line.L13"
13           1       469.6 +j    256.7      535.2       0.8775
13           2       380.6 +j    252.1      456.5       0.8337
13           3       393.1 +j    227.9      454.4       0.8651
   TERMINAL TOTAL   1243.3 +j    736.7     1445.1       0.8603
18           1      -467.7 +j   -251.7      531.1       0.8806
18           2      -379.5 +j   -248.8      453.7       0.8363
18           3      -390.5 +j   -224.7      450.5       0.8667
   TERMINAL TOTAL  -1237.6 +j   -725.2     1434.4       0.8628

ELEMENT = "Line.L14"
14           1        38.2 +j     19.1       42.7       0.8943
   TERMINAL TOTAL     38.2 +j     19.1       42.7       0.8943
11           1       -38.1 +j    -19.1       42.6       0.8944
   TERMINAL TOTAL    -38.1 +j    -19.1       42.6       0.8944

ELEMENT = "Line.L15"
14           1        19.0 +j      9.5       21.3       0.8944
   TERMINAL TOTAL     19.0 +j      9.5       21.3       0.8944
10           1       -19.0 +j     -9.5       21.3       0.8944
   TERMINAL TOTAL    -19.0 +j     -9.5       21.3       0.8944

ELEMENT = "Line.L16"
15           3        51.8 +j     25.9       57.9       0.8943
   TERMINAL TOTAL     51.8 +j     25.9       57.9       0.8943
16           3       -51.7 +j    -25.8       57.8       0.8944
   TERMINAL TOTAL    -51.7 +j    -25.8       57.8       0.8944

ELEMENT = "Line.L17"
15           3        25.9 +j     12.9       28.9       0.8944
   TERMINAL TOTAL     25.9 +j     12.9       28.9       0.8944
17           3       -25.8 +j    -12.9       28.9       0.8944
   TERMINAL TOTAL    -25.8 +j    -12.9       28.9       0.8944

ELEMENT = "Line.L18"
18           1        75.6 +j     37.9       84.6       0.8942
   TERMINAL TOTAL     75.6 +j     37.9       84.6       0.8942
19           1       -75.6 +j    -37.8       84.5       0.8944
   TERMINAL TOTAL    -75.6 +j    -37.8       84.5       0.8944

ELEMENT = "Line.L19"
18           1       113.1 +j     57.0      126.6       0.8929
18           2        55.6 +j     27.8       62.2       0.8943
18           3       155.7 +j     78.3      174.3       0.8935
   TERMINAL TOTAL    324.5 +j    163.1      363.2       0.8934
21           1      -113.1 +j    -56.9      126.6       0.8933
21           2       -55.6 +j    -27.8       62.2       0.8942
21           3      -155.6 +j    -78.0      174.1       0.8939
   TERMINAL TOTAL   -324.3 +j   -162.8      362.9       0.8937

ELEMENT = "Line.L20"
19           1        37.7 +j     18.9       42.1       0.8943
   TERMINAL TOTAL     37.7 +j     18.9       42.1       0.8943
20           1       -37.7 +j    -18.8       42.1       0.8944
   TERMINAL TOTAL    -37.7 +j    -18.8       42.1       0.8944

ELEMENT = "Line.L21"
21           2        55.6 +j     27.9       62.2       0.8942
   TERMINAL TOTAL     55.6 +j     27.9       62.2       0.8942
22           2       -55.5 +j    -27.8       62.1       0.8944
   TERMINAL TOTAL    -55.5 +j    -27.8       62.1       0.8944

ELEMENT = "Line.L22"
21           1       113.1 +j     56.9      126.6       0.8933
21           2         0.0 +j     -0.0        0.0      -0.0628
21           3       155.6 +j     78.0      174.1       0.8939
   TERMINAL TOTAL    268.7 +j    134.9      300.6       0.8936
23           1      -113.1 +j    -56.8      126.6       0.8937
23           2        -0.0 +j      0.0        0.0      -0.0631
23           3      -155.4 +j    -77.8      173.8       0.8941
   TERMINAL TOTAL   -268.5 +j   -134.6      300.4       0.8939

ELEMENT = "Line.L23"
23           3        51.8 +j     25.9       57.9       0.8942
   TERMINAL TOTAL     51.8 +j     25.9       57.9       0.8942
24           3       -51.7 +j    -25.8       57.8       0.8944
   TERMINAL TOTAL    -51.7 +j    -25.8       57.8       0.8944

ELEMENT = "Line.L24"
23           1       113.1 +j     56.8      126.6       0.8937
23           2         0.0 +j     -0.0        0.0      -0.0631
23           3       103.6 +j     51.9      115.9       0.8941
   TERMINAL TOTAL    216.7 +j    108.7      242.5       0.8939
25           1      -113.1 +j    -56.7      126.5       0.8941
25           2        -0.0 +j      0.0        0.0      -0.0634
25           3      -103.5 +j    -51.8      115.8       0.8942
   TERMINAL TOTAL   -216.6 +j   -108.5      242.3       0.8942

ELEMENT = "Line.L25"
25R          1        37.9 +j     19.0       42.4       0.8940
25R          3        51.8 +j     25.9       57.9       0.8942
   TERMINAL TOTAL     89.7 +j     44.9      100.3       0.8941
26           1       -37.9 +j    -19.0       42.4       0.8941
26           3       -51.7 +j    -25.9       57.9       0.8943
   TERMINAL TOTAL    -89.7 +j    -44.9      100.3       0.8942

ELEMENT = "Line.L26"
25           1        75.2 +j     37.7       84.1       0.8942
25           2         0.0 +j     -0.0        0.0      -0.0634
25           3        51.8 +j     25.9       57.9       0.8942
   TERMINAL TOTAL    127.0 +j     63.6      142.0       0.8942
28           1       -75.2 +j    -37.6       84.1       0.8944
28           2        -0.0 +j      0.0        0.0      -0.0634
28           3       -51.7 +j    -25.9       57.9       0.8941
   TERMINAL TOTAL   -126.9 +j    -63.5      141.9       0.8943

ELEMENT = "Line.L27"
26           1        37.9 +j     19.0       42.4       0.8941
26           3        -0.0 +j     -0.0        0.0       0.1565
   TERMINAL TOTAL     37.9 +j     19.0       42.4       0.8942
27           1       -37.9 +j    -19.0       42.4       0.8943
27           3        -0.0 +j     -0.0        0.0       0.2858
   TERMINAL TOTAL    -37.9 +j    -19.0       42.4       0.8943

ELEMENT = "Line.L28"
26           3        51.7 +j     25.9       57.9       0.8943
   TERMINAL TOTAL     51.7 +j     25.9       57.9       0.8943
31           3       -51.7 +j    -25.9       57.8       0.8944
   TERMINAL TOTAL    -51.7 +j    -25.9       57.8       0.8944

ELEMENT = "Line.L29"
27           1        37.9 +j     19.0       42.4       0.8943
   TERMINAL TOTAL     37.9 +j     19.0       42.4       0.8943
33           1       -37.9 +j    -18.9       42.3       0.8944
   TERMINAL TOTAL    -37.9 +j    -18.9       42.3       0.8944

ELEMENT = "Line.L30"
28           1        37.5 +j     18.8       41.9       0.8943
28           2         0.0 +j     -0.0        0.0      -0.0634
28           3        51.7 +j     25.9       57.9       0.8941
   TERMINAL TOTAL     89.2 +j     44.7       99.8       0.8942
29           1       -37.5 +j    -18.8       41.9       0.8945
29           2        -0.0 +j      0.0        0.0      -0.0635
29           3       -51.7 +j    -25.9       57.8       0.8942
   TERMINAL TOTAL    -89.2 +j    -44.6       99.8       0.8943

ELEMENT = "Line.L31"
29           1         0.0 +j     -0.0        0.0      -0.0704
29           2         0.0 +j     -0.0        0.0      -0.0635
29           3        51.7 +j     25.9       57.8       0.8942
   TERMINAL TOTAL     51.7 +j     25.9       57.8       0.8943
30           1        -0.0 +j      0.0        0.0      -0.0704
30           2        -0.0 +j      0.0        0.0      -0.0638
30           3       -51.7 +j    -25.8       57.8       0.8944
   TERMINAL TOTAL    -51.7 +j    -25.8       57.8       0.8945

ELEMENT = "Line.L32"
30           1         0.0 +j     -0.0        0.0      -0.0704
30           2         0.0 +j     -0.0        0.0      -0.0638
30           3        -0.0 +j     -0.0        0.0       0.1343
   TERMINAL TOTAL      0.0 +j     -0.0        0.0      -0.0000
250          1        -0.0 +j     -0.0        0.0       0.2851
250          2        -0.0 +j     -0.0        0.0       0.8471
250          3        -0.0 +j     -0.0        0.0       0.7697
   TERMINAL TOTAL     -0.0 +j     -0.0        0.0       0.6972

ELEMENT = "Line.L33"
31           3        25.9 +j     12.9       28.9       0.8944
   TERMINAL TOTAL     25.9 +j     12.9       28.9       0.8944
32           3       -25.8 +j    -12.9       28.9       0.8944
   TERMINAL TOTAL    -25.8 +j    -12.9       28.9       0.8944

ELEMENT = "Line.L34"
34           3        77.6 +j     38.9       86.8       0.8942
   TERMINAL TOTAL     77.6 +j     38.9       86.8       0.8942
15           3       -77.6 +j    -38.8       86.8       0.8943
   TERMINAL TOTAL    -77.6 +j    -38.8       86.8       0.8943

ELEMENT = "Line.L35"
35           1        37.3 +j     18.7       41.8       0.8943
35           2        53.6 +j     26.9       60.0       0.8938
   TERMINAL TOTAL     91.0 +j     45.6      101.8       0.8940
36           1       -37.3 +j    -18.7       41.7       0.8943
36           2       -53.6 +j    -26.8       59.9       0.8943
   TERMINAL TOTAL    -90.9 +j    -45.5      101.7       0.8943

ELEMENT = "Line.L36"
35           1       216.9 +j    139.2      257.8       0.8416
35           2       255.8 +j    172.0      308.3       0.8299
35           3       234.7 +j    145.9      276.4       0.8492
   TERMINAL TOTAL    707.4 +j    457.1      842.3       0.8399
40           1      -216.7 +j   -138.9      257.4       0.8418
40           2      -255.6 +j   -171.5      307.8       0.8304
40           3      -234.6 +j   -145.5      276.0       0.8498
   TERMINAL TOTAL   -706.8 +j   -455.9      841.1       0.8403

ELEMENT = "Line.L37"
36           1        37.3 +j     18.7       41.7       0.8943
   TERMINAL TOTAL     37.3 +j     18.7       41.7       0.8943
37           1       -37.3 +j    -18.6       41.7       0.8944
   TERMINAL TOTAL    -37.3 +j    -18.6       41.7       0.8944

ELEMENT = "Line.L38"
36           2        53.6 +j     26.8       59.9       0.8943
   TERMINAL TOTAL     53.6 +j     26.8       59.9       0.8943
38           2       -53.6 +j    -26.8       59.9       0.8944
   TERMINAL TOTAL    -53.6 +j    -26.8       59.9       0.8944

ELEMENT = "Line.L39"
38           2        26.5 +j     13.3       29.6       0.8944
   TERMINAL TOTAL     26.5 +j     13.3       29.6       0.8944
39           2       -26.5 +j    -13.3       29.6       0.8944
   TERMINAL TOTAL    -26.5 +j    -13.3       29.6       0.8944

ELEMENT = "Line.L40"
40           3        25.9 +j     12.9       28.9       0.8944
   TERMINAL TOTAL     25.9 +j     12.9       28.9       0.8944
41           3       -25.8 +j    -12.9       28.9       0.8944
   TERMINAL TOTAL    -25.8 +j    -12.9       28.9       0.8944

ELEMENT = "Line.L41"
40           1       216.7 +j    138.9      257.4       0.8418
40           2       255.6 +j    171.5      307.8       0.8304
40           3       208.7 +j    132.6      247.2       0.8441
   TERMINAL TOTAL    681.0 +j    443.0      812.4       0.8382
42           1      -216.4 +j   -138.6      257.0       0.8421
42           2      -255.4 +j   -171.0      307.4       0.8309
42           3      -208.6 +j   -132.3      247.0       0.8446
   TERMINAL TOTAL   -680.4 +j   -441.9      811.3       0.8387

ELEMENT = "Line.L42"
42           2        55.0 +j     27.5       61.5       0.8942
   TERMINAL TOTAL     55.0 +j     27.5       61.5       0.8942
43           2       -54.9 +j    -27.4       61.4       0.8944
   TERMINAL TOTAL    -54.9 +j    -27.4       61.4       0.8944

ELEMENT = "Line.L43"
42           1       197.5 +j    129.1      236.0       0.8369
42           2       200.4 +j    143.5      246.5       0.8131
42           3       208.6 +j    132.3      247.0       0.8446
   TERMINAL TOTAL    606.5 +j    404.9      729.3       0.8317
44           1      -197.3 +j   -128.9      235.7       0.8372
44           2      -200.3 +j   -143.3      246.3       0.8134
44           3      -208.5 +j   -132.0      246.8       0.8450
   TERMINAL TOTAL   -606.2 +j   -404.2      728.6       0.8320

ELEMENT = "Line.L44"
44           1        37.7 +j     18.9       42.1       0.8943
   TERMINAL TOTAL     37.7 +j     18.9       42.1       0.8943
45           1       -37.7 +j    -18.8       42.1       0.8944
   TERMINAL TOTAL    -37.7 +j    -18.8       42.1       0.8944

ELEMENT = "Line.L45"
44           1       159.6 +j    110.1      193.9       0.8233
44           2       200.3 +j    143.3      246.3       0.8134
44           3       208.5 +j    132.0      246.8       0.8450
   TERMINAL TOTAL    568.5 +j    385.3      686.8       0.8278
47           1      -159.5 +j   -109.9      193.7       0.8235
47           2      -200.2 +j   -143.0      246.0       0.8137
47           3      -208.4 +j   -131.6      246.5       0.8455
   TERMINAL TOTAL   -568.1 +j   -384.5      686.0       0.8281

ELEMENT = "Line.L46"
45           1        18.9 +j      9.5       21.2       0.8944
   TERMINAL TOTAL     18.9 +j      9.5       21.2       0.8944
46           1       -18.9 +j     -9.5       21.2       0.8944
   TERMINAL TOTAL    -18.9 +j     -9.5       21.2       0.8944

ELEMENT = "Line.L47"
47           1        73.3 +j     52.4       90.1       0.8137
47           2        77.5 +j     55.4       95.3       0.8137
47           3        75.2 +j     53.7       92.4       0.8136
   TERMINAL TOTAL    226.1 +j    161.5      277.8       0.8137
48           1       -73.3 +j    -52.4       90.1       0.8137
48           2       -77.5 +j    -55.4       95.3       0.8137
48           3       -75.2 +j    -53.7       92.4       0.8137
   TERMINAL TOTAL   -226.0 +j   -161.4      277.8       0.8137

ELEMENT = "Line.L48"
47           1        49.1 +j     31.0       58.1       0.8454
47           2        84.5 +j     60.3      103.8       0.8137
47           3        95.6 +j     51.0      108.4       0.8822
   TERMINAL TOTAL    229.2 +j    142.4      269.8       0.8494
49           1       -49.1 +j    -31.0       58.1       0.8455
49           2       -84.4 +j    -60.3      103.7       0.8138
49           3       -95.6 +j    -51.0      108.4       0.8825
   TERMINAL TOTAL   -229.1 +j   -142.2      269.7       0.8496

ELEMENT = "Line.L49"
49           1        18.9 +j      9.5       21.2       0.8944
49           2        -0.0 +j     -0.0        0.0       0.3733
49           3        51.7 +j     25.9       57.8       0.8944
   TERMINAL TOTAL     70.6 +j     35.3       79.0       0.8944
50           1       -18.9 +j     -9.5       21.2       0.8945
50           2         0.0 +j      0.0        0.0       0.3731
50           3       -51.7 +j    -25.8       57.8       0.8945
   TERMINAL TOTAL    -70.6 +j    -35.3       79.0       0.8945

ELEMENT = "Line.L50"
50           1        18.9 +j      9.5       21.2       0.8945
50           2        -0.0 +j     -0.0        0.0       0.3731
50           3         0.0 +j     -0.0        0.0      -0.1441
   TERMINAL TOTAL     18.9 +j      9.5       21.2       0.8947
51           1       -18.9 +j     -9.5       21.2       0.8945
51           2         0.0 +j      0.0        0.0       0.3731
51           3        -0.0 +j      0.0        0.0      -0.1442
   TERMINAL TOTAL    -18.9 +j     -9.5       21.2       0.8946

ELEMENT = "Line.L51"
51           1         0.0 +j     -0.0        0.0      -0.3043
51           2        -0.0 +j     -0.0        0.0       0.3731
51           3         0.0 +j     -0.0        0.0      -0.1442
   TERMINAL TOTAL     -0.0 +j     -0.0        0.0       0.0000
151          1         0.0 +j     -0.0        0.0      -1.0000
151          2         0.0 +j      0.0        0.0       1.0000
151          3         0.0 +j      0.0        0.0       1.0000
   TERMINAL TOTAL      0.0 +j      0.0        0.0       1.0000

ELEMENT = "Line.L52"
52           1       912.9 +j    243.9      944.9       0.9661
52           2       724.6 +j    154.4      740.9       0.9780
52           3       722.2 +j    122.0      732.4       0.9860
   TERMINAL TOTAL   2359.6 +j    520.3     2416.3       0.9765
53           1      -910.2 +j   -239.6      941.3       0.9670
53           2      -724.3 +j   -152.3      740.2       0.9786
53           3      -721.1 +j   -120.1      731.1       0.9864
   TERMINAL TOTAL  -2355.7 +j   -512.1     2410.7       0.9772

ELEMENT = "Line.L53"
53           1       872.4 +j    220.7      899.9       0.9695
53           2       724.3 +j    152.3      740.2       0.9786
53           3       721.1 +j    120.1      731.1       0.9864
   TERMINAL TOTAL   2317.8 +j    493.2     2369.7       0.9781
54           1      -870.9 +j   -218.3      897.8       0.9700
54           2      -724.1 +j   -151.1      739.7       0.9789
54           3      -720.5 +j   -118.9      730.2       0.9867
   TERMINAL TOTAL  -2315.5 +j   -488.3     2366.4       0.9785

ELEMENT = "Line.L54"
54           1        18.6 +j      9.3       20.7       0.8945
54           2        26.5 +j     13.3       29.6       0.8943
54           3         0.0 +j     -0.0        0.0      -0.0690
   TERMINAL TOTAL     45.1 +j     22.5       50.4       0.8944
55           1       -18.6 +j     -9.3       20.7       0.8945
55           2       -26.5 +j    -13.3       29.6       0.8944
55           3        -0.0 +j      0.0        0.0      -0.0690
   TERMINAL TOTAL    -45.1 +j    -22.5       50.4       0.8944

ELEMENT = "Line.L55"
54           1       852.3 +j    209.0      877.6       0.9712
54           2       697.6 +j    137.8      711.0       0.9810
54           3       720.5 +j    118.9      730.2       0.9867
   TERMINAL TOTAL   2270.4 +j    465.7     2317.7       0.9796
57           1      -849.4 +j   -202.4      873.2       0.9728
57           2      -695.8 +j   -134.3      708.7       0.9819
57           3      -718.8 +j   -115.9      728.1       0.9872
   TERMINAL TOTAL  -2264.0 +j   -452.6     2308.8       0.9806

ELEMENT = "Line.L56"
55           1        -0.0 +j     -0.0        0.0       0.1497
55           2        26.5 +j     13.3       29.6       0.8944
55           3         0.0 +j     -0.0        0.0      -0.0690
   TERMINAL TOTAL     26.5 +j     13.3       29.6       0.8944
56           1         0.0 +j     -0.0        0.0      -0.2416
56           2       -26.5 +j    -13.3       29.6       0.8944
56           3        -0.0 +j      0.0        0.0      -0.8168
   TERMINAL TOTAL    -26.5 +j    -13.3       29.6       0.8944

ELEMENT = "Line.L57"
57           2        53.7 +j     26.9       60.0       0.8943
   TERMINAL TOTAL     53.7 +j     26.9       60.0       0.8943
58           2       -53.7 +j    -26.8       60.0       0.8944
   TERMINAL TOTAL    -53.7 +j    -26.8       60.0       0.8944

ELEMENT = "Line.L58"
57           1       849.4 +j    202.4      873.2       0.9728
57           2       642.1 +j    107.4      651.1       0.9863
57           3       718.8 +j    115.9      728.1       0.9872
   TERMINAL TOTAL   2210.3 +j    425.8     2251.0       0.9819
60           1      -843.5 +j   -187.8      864.1       0.9761
60           2      -639.3 +j   -101.4      647.3       0.9877
60           3      -714.5 +j   -109.6      722.9       0.9884
   TERMINAL TOTAL  -2197.3 +j   -398.8     2233.2       0.9839

ELEMENT = "Line.L59"
58           2        26.5 +j     13.3       29.6       0.8944
   TERMINAL TOTAL     26.5 +j     13.3       29.6       0.8944
59           2       -26.5 +j    -13.3       29.6       0.8944
   TERMINAL TOTAL    -26.5 +j    -13.3       29.6       0.8944

ELEMENT = "Line.L60"
60           1        -0.0 +j     -0.0        0.0       0.0887
60           2         0.0 +j     -0.0        0.0      -0.1384
60           3        -0.0 +j     -0.0        0.0       0.0557
   TERMINAL TOTAL      0.0 +j     -0.0        0.0      -0.0002
61           1        -0.0 +j     -0.0        0.0       0.0310
61           2        -0.0 +j     -0.0        0.0       0.0352
61           3        -0.0 +j     -0.0        0.0       0.0241
   TERMINAL TOTAL     -0.0 +j     -0.0        0.0       0.0301

ELEMENT = "Line.L61"
60           1        82.0 +j     71.2      108.6       0.7555
60           2       141.9 +j     70.3      158.4       0.8961
60           3       220.1 +j    106.1      244.4       0.9009
   TERMINAL TOTAL    444.1 +j    247.5      508.5       0.8735
62           1       -82.0 +j    -71.1      108.5       0.7553
62           2      -141.7 +j    -70.3      158.2       0.8958
62           3      -219.6 +j   -105.7      243.7       0.9010
   TERMINAL TOTAL   -443.3 +j   -247.2      507.5       0.8734

ELEMENT = "Line.L62"
62           1        82.0 +j     71.1      108.5       0.7553
62           2       141.7 +j     70.3      158.2       0.8958
62           3       168.3 +j     80.1      186.4       0.9030
   TERMINAL TOTAL    392.0 +j    221.5      450.3       0.8706
63           1       -81.9 +j    -71.1      108.5       0.7551
63           2      -141.5 +j    -70.3      158.0       0.8957
63           3      -168.1 +j    -80.0      186.2       0.9031
   TERMINAL TOTAL   -391.6 +j   -221.3      449.8       0.8705

ELEMENT = "Line.L63"
63           1        44.1 +j     52.2       68.3       0.6450
63           2       141.5 +j     70.3      158.0       0.8957
63           3       168.1 +j     80.0      186.2       0.9031
   TERMINAL TOTAL    353.7 +j    202.4      407.5       0.8679
64           1       -44.0 +j    -52.2       68.3       0.6444
64           2      -141.1 +j    -70.2      157.6       0.8953
64           3      -167.7 +j    -79.6      185.7       0.9033
   TERMINAL TOTAL   -352.9 +j   -202.1      406.6       0.8678

ELEMENT = "Line.L64"
64           1        44.0 +j     52.2       68.3       0.6444
64           2        39.0 +j     22.6       45.1       0.8657
64           3       167.7 +j     79.6      185.7       0.9033
   TERMINAL TOTAL    250.8 +j    154.4      294.5       0.8515
65           1       -44.0 +j    -52.2       68.3       0.6444
65           2       -39.0 +j    -22.6       45.1       0.8650
65           3      -167.1 +j    -79.3      185.0       0.9033
   TERMINAL TOTAL   -250.1 +j   -154.2      293.8       0.8512

ELEMENT = "Line.L65"
65           1         0.0 +j     -0.0        0.0      -0.0003
65           2        -0.0 +j     -0.0        0.0       0.0003
65           3        98.4 +j     45.9      108.6       0.9062
   TERMINAL TOTAL     98.4 +j     45.9      108.6       0.9064
66           1        -0.0 +j      0.0        0.0      -0.9976
66           2        -0.0 +j      0.0        0.0      -0.9951
66           3       -98.2 +j    -45.8      108.4       0.9062
   TERMINAL TOTAL    -98.2 +j    -45.8      108.4       0.9062

ELEMENT = "Line.L66"
67           1       160.8 +j     80.8      180.0       0.8937
   TERMINAL TOTAL    160.8 +j     80.8      180.0       0.8937
68           1      -160.6 +j    -80.5      179.6       0.8940
   TERMINAL TOTAL   -160.6 +j    -80.5      179.6       0.8940

ELEMENT = "Line.L67"
67           1       334.4 +j   -102.6      349.8      -0.9560
67           2       354.4 +j    -42.4      356.9      -0.9929
67           3       337.9 +j    -75.3      346.2      -0.9761
   TERMINAL TOTAL   1026.7 +j   -220.4     1050.0      -0.9777
72           1      -334.2 +j    103.3      349.8      -0.9554
72           2      -353.9 +j     43.1      356.5      -0.9927
72           3      -337.6 +j     76.0      346.1      -0.9756
   TERMINAL TOTAL  -1025.7 +j    222.4     1049.5      -0.9773

ELEMENT = "Line.L68"
67           1       245.3 +j    124.6      275.1       0.8916
67           2       142.6 +j     71.6      159.6       0.8936
67           3       155.3 +j     77.9      173.7       0.8938
   TERMINAL TOTAL    543.1 +j    274.1      608.4       0.8928
97           1      -245.1 +j   -124.1      274.7       0.8921
97           2      -142.6 +j    -71.5      159.5       0.8938
97           3      -155.2 +j    -77.8      173.6       0.8939
   TERMINAL TOTAL   -542.8 +j   -273.4      607.8       0.8931

ELEMENT = "Line.L69"
68           1       133.9 +j     67.1      149.8       0.8939
   TERMINAL TOTAL    133.9 +j     67.1      149.8       0.8939
69           1      -133.6 +j    -66.9      149.4       0.8942
   TERMINAL TOTAL   -133.6 +j    -66.9      149.4       0.8942

ELEMENT = "Line.L70"
69           1        80.2 +j     40.2       89.7       0.8941
   TERMINAL TOTAL     80.2 +j     40.2       89.7       0.8941
70           1       -80.1 +j    -40.1       89.6       0.8943
   TERMINAL TOTAL    -80.1 +j    -40.1       89.6       0.8943

ELEMENT = "Line.L71"
70           1        53.4 +j     26.7       59.8       0.8943
   TERMINAL TOTAL     53.4 +j     26.7       59.8       0.8943
71           1       -53.4 +j    -26.7       59.7       0.8944
   TERMINAL TOTAL    -53.4 +j    -26.7       59.7       0.8944

ELEMENT = "Line.L72"
72           3       133.2 +j     66.8      149.0       0.8938
   TERMINAL TOTAL    133.2 +j     66.8      149.0       0.8938
73           3      -132.9 +j    -66.6      148.6       0.8942
   TERMINAL TOTAL   -132.9 +j    -66.6      148.6       0.8942

ELEMENT = "Line.L73"
72           1       334.2 +j   -103.3      349.8      -0.9554
72           2       353.9 +j    -43.1      356.5      -0.9927
72           3       204.5 +j   -142.8      249.4      -0.8199
   TERMINAL TOTAL    892.5 +j   -289.2      938.2      -0.9513
76           1      -333.9 +j    103.7      349.6      -0.9550
76           2      -353.5 +j     43.8      356.2      -0.9924
76           3      -204.5 +j    143.0      249.5      -0.8195
   TERMINAL TOTAL   -891.9 +j    290.5      938.0      -0.9508

ELEMENT = "Line.L74"
73           3        89.3 +j     44.8       99.9       0.8941
   TERMINAL TOTAL     89.3 +j     44.8       99.9       0.8941
74           3       -89.2 +j    -44.6       99.7       0.8944
   TERMINAL TOTAL    -89.2 +j    -44.6       99.7       0.8944

ELEMENT = "Line.L75"
74           3        43.6 +j     21.8       48.8       0.8943
   TERMINAL TOTAL     43.6 +j     21.8       48.8       0.8943
75           3       -43.6 +j    -21.8       48.7       0.8944
   TERMINAL TOTAL    -43.6 +j    -21.8       48.7       0.8944

ELEMENT = "Line.L76"
76           1       111.5 +j   -160.6      195.5      -0.5704
76           2        95.5 +j   -167.8      193.1      -0.4946
76           3        88.1 +j   -167.6      189.4      -0.4651
   TERMINAL TOTAL    295.1 +j   -496.0      577.2      -0.5113
77           1      -111.4 +j    160.9      195.7      -0.5693
77           2       -95.3 +j    168.1      193.3      -0.4933
77           3       -87.9 +j    167.9      189.5      -0.4640
   TERMINAL TOTAL   -294.7 +j    496.9      577.7      -0.5101

ELEMENT = "Line.L77"
76           1       107.2 +j      0.1      107.2       1.0000
76           2       168.0 +j     31.8      171.0       0.9826
76           3        43.5 +j    -31.1       53.5      -0.8138
   TERMINAL TOTAL    318.7 +j      0.8      318.7       1.0000
86           1      -107.0 +j     -0.0      107.0       1.0000
86           2      -167.8 +j    -31.1      170.7       0.9832
86           3       -43.6 +j     31.1       53.6      -0.8136
   TERMINAL TOTAL   -318.4 +j     -0.1      318.4       1.0000

ELEMENT = "Line.L78"
77           1       111.4 +j   -160.9      195.7      -0.5693
77           2        47.9 +j   -191.8      197.7      -0.2422
77           3        87.9 +j   -167.9      189.5      -0.4640
   TERMINAL TOTAL    247.2 +j   -520.6      576.3      -0.4290
78           1      -111.4 +j    161.0      195.7      -0.5690
78           2       -47.9 +j    191.9      197.8      -0.2419
78           3       -87.9 +j    167.9      189.5      -0.4638
   TERMINAL TOTAL   -247.1 +j    520.8      576.5      -0.4287

ELEMENT = "Line.L79"
78           1        57.6 +j     28.8       64.4       0.8943
78           2        -0.0 +j     -0.0        0.0       0.0612
78           3        -0.0 +j     -0.0        0.0       0.0735
   TERMINAL TOTAL     57.6 +j     28.8       64.4       0.8943
79           1       -57.6 +j    -28.8       64.4       0.8944
79           2        -0.0 +j     -0.0        0.0       0.2997
79           3        -0.0 +j     -0.0        0.0       0.9883
   TERMINAL TOTAL    -57.6 +j    -28.8       64.4       0.8944

ELEMENT = "Line.L80"
78           1        53.8 +j   -189.8      197.3      -0.2726
78           2        47.9 +j   -191.9      197.8      -0.2419
78           3        87.9 +j   -167.9      189.5      -0.4638
   TERMINAL TOTAL    189.5 +j   -549.6      581.4      -0.3260
80           1       -53.6 +j    190.2      197.6      -0.2715
80           2       -47.7 +j    192.3      198.1      -0.2408
80           3       -87.7 +j    168.2      189.7      -0.4621
   TERMINAL TOTAL   -189.0 +j    550.7      582.2      -0.3246

ELEMENT = "Line.L81"
80           1        53.6 +j   -190.2      197.6      -0.2715
80           2         0.3 +j   -216.0      216.0      -0.0012
80           3        87.7 +j   -168.2      189.7      -0.4621
   TERMINAL TOTAL    141.6 +j   -574.4      591.6      -0.2393
81           1       -53.6 +j    190.4      197.8      -0.2709
81           2        -0.2 +j    216.2      216.2      -0.0010
81           3       -87.6 +j    168.3      189.7      -0.4616
   TERMINAL TOTAL   -141.4 +j    574.8      592.0      -0.2388

ELEMENT = "Line.L82"
81           1        53.6 +j   -190.4      197.8      -0.2709
81           2         0.2 +j   -216.2      216.2      -0.0010
81           3        22.0 +j   -201.2      202.4      -0.1087
   TERMINAL TOTAL     75.8 +j   -607.7      612.4      -0.1238
82           1       -53.5 +j    190.5      197.9      -0.2702
82           2        -0.1 +j    216.5      216.5      -0.0005
82           3       -21.9 +j    201.3      202.5      -0.1082
   TERMINAL TOTAL    -75.5 +j    608.3      613.0      -0.1232

ELEMENT = "Line.L83"
81           3        65.6 +j     32.9       73.3       0.8939
   TERMINAL TOTAL     65.6 +j     32.9       73.3       0.8939
84           3       -65.4 +j    -32.7       73.1       0.8943
   TERMINAL TOTAL    -65.4 +j    -32.7       73.1       0.8943

ELEMENT = "Line.L84"
82           1         0.1 +j   -217.2      217.2      -0.0004
82           2         0.1 +j   -216.5      216.5      -0.0005
82           3        21.9 +j   -201.3      202.5      -0.1082
   TERMINAL TOTAL     22.1 +j   -635.0      635.4      -0.0348
83           1        -0.0 +j    217.5      217.5      -0.0000
83           2        -0.0 +j    216.7      216.7      -0.0000
83           3       -21.8 +j    201.5      202.7      -0.1075
   TERMINAL TOTAL    -21.8 +j    635.7      636.0      -0.0343

ELEMENT = "Line.L85"
84           3        43.6 +j     21.8       48.8       0.8942
   TERMINAL TOTAL     43.6 +j     21.8       48.8       0.8942
85           3       -43.6 +j    -21.8       48.7       0.8944
   TERMINAL TOTAL    -43.6 +j    -21.8       48.7       0.8944

ELEMENT = "Line.L86"
86           1       107.0 +j      0.0      107.0       1.0000
86           2       144.1 +j     19.3      145.3       0.9912
86           3        43.6 +j    -31.1       53.6      -0.8136
   TERMINAL TOTAL    294.7 +j    -11.8      294.9      -0.9992
87           1      -106.9 +j      0.0      106.9      -1.0000
87           2      -144.0 +j    -19.0      145.2       0.9914
87           3       -43.6 +j     31.2       53.6      -0.8136
   TERMINAL TOTAL   -294.5 +j     12.2      294.7      -0.9991

ELEMENT = "Line.L87"
87           1        53.4 +j    -26.8       59.8      -0.8940
   TERMINAL TOTAL     53.4 +j    -26.8       59.8      -0.8940
88           1       -53.4 +j     26.8       59.7      -0.8937
   TERMINAL TOTAL    -53.4 +j     26.8       59.7      -0.8937

ELEMENT = "Line.L88"
87           1        53.5 +j     26.8       59.8       0.8943
87           2        96.5 +j     -4.7       96.6      -0.9988
87           3        43.6 +j    -31.2       53.6      -0.8136
   TERMINAL TOTAL    193.6 +j     -9.1      193.8      -0.9989
89           1       -53.5 +j    -26.8       59.8       0.8943
89           2       -96.5 +j      4.8       96.6      -0.9988
89           3       -43.6 +j     31.2       53.6      -0.8135
   TERMINAL TOTAL   -193.5 +j      9.2      193.8      -0.9989

ELEMENT = "Line.L89"
89           2        49.0 +j    -28.6       56.7      -0.8635
   TERMINAL TOTAL     49.0 +j    -28.6       56.7      -0.8635
90           2       -49.0 +j     28.6       56.7      -0.8632
   TERMINAL TOTAL    -49.0 +j     28.6       56.7      -0.8632

ELEMENT = "Line.L90"
89           1        53.5 +j     26.8       59.8       0.8943
89           2        47.5 +j     23.8       53.1       0.8940
89           3        43.6 +j    -31.2       53.6      -0.8135
   TERMINAL TOTAL    144.6 +j     19.4      145.9       0.9911
91           1       -53.5 +j    -26.8       59.8       0.8943
91           2       -47.5 +j    -23.8       53.1       0.8941
91           3       -43.6 +j     31.2       53.6      -0.8133
   TERMINAL TOTAL   -144.5 +j    -19.3      145.8       0.9912

ELEMENT = "Line.L91"
91           3        43.6 +j    -31.2       53.6      -0.8134
   TERMINAL TOTAL     43.6 +j    -31.2       53.6      -0.8134
92           3       -43.6 +j     31.2       53.6      -0.8129
   TERMINAL TOTAL    -43.6 +j     31.2       53.6      -0.8129

ELEMENT = "Line.L92"
91           1        53.5 +j     26.8       59.8       0.8943
91           2        47.5 +j     23.8       53.1       0.8941
91           3        -0.0 +j     -0.0        0.0       0.0729
   TERMINAL TOTAL    100.9 +j     50.5      112.9       0.8942
93           1       -53.4 +j    -26.7       59.8       0.8943
93           2       -47.5 +j    -23.8       53.1       0.8943
93           3         0.0 +j      0.0        0.0       0.0728
   TERMINAL TOTAL   -100.9 +j    -50.5      112.8       0.8943

ELEMENT = "Line.L93"
93           1        53.4 +j     26.7       59.8       0.8943
   TERMINAL TOTAL     53.4 +j     26.7       59.8       0.8943
94           1       -53.4 +j    -26.7       59.7       0.8944
   TERMINAL TOTAL    -53.4 +j    -26.7       59.7       0.8944

ELEMENT = "Line.L94"
93           1         0.0 +j     -0.0        0.0      -0.1338
93           2        47.5 +j     23.8       53.1       0.8943
93           3        -0.0 +j     -0.0        0.0       0.0728
   TERMINAL TOTAL     47.5 +j     23.8       53.1       0.8943
95           1        -0.0 +j      0.0        0.0      -0.7501
95           2       -47.5 +j    -23.7       53.1       0.8944
95           3        -0.0 +j     -0.0        0.0       0.8892
   TERMINAL TOTAL    -47.5 +j    -23.7       53.1       0.8944

ELEMENT = "Line.L95"
95           2        23.7 +j     11.9       26.5       0.8944
   TERMINAL TOTAL     23.7 +j     11.9       26.5       0.8944
96           2       -23.7 +j    -11.9       26.5       0.8944
   TERMINAL TOTAL    -23.7 +j    -11.9       26.5       0.8944

ELEMENT = "Line.L96"
97           1        53.4 +j     26.7       59.7       0.8944
97           2        47.5 +j     23.8       53.1       0.8943
97           3        45.9 +j     23.0       51.3       0.8940
   TERMINAL TOTAL    146.8 +j     73.5      164.1       0.8943
98           1       -53.4 +j    -26.7       59.7       0.8945
98           2       -47.5 +j    -23.7       53.1       0.8944
98           3       -45.9 +j    -23.0       51.3       0.8940
   TERMINAL TOTAL   -146.7 +j    -73.4      164.1       0.8943

ELEMENT = "Line.L97"
98           1         0.0 +j     -0.0        0.0      -0.0576
98           2        47.5 +j     23.7       53.1       0.8944
98           3        45.9 +j     23.0       51.3       0.8940
   TERMINAL TOTAL     93.3 +j     46.7      104.4       0.8943
99           1        -0.0 +j      0.0        0.0      -0.0578
99           2       -47.5 +j    -23.7       53.1       0.8945
99           3       -45.9 +j    -22.9       51.3       0.8943
   TERMINAL TOTAL    -93.3 +j    -46.7      104.3       0.8945

ELEMENT = "Line.L98"
99           1         0.0 +j     -0.0        0.0      -0.0578
99           2        -0.0 +j     -0.0        0.0       0.1373
99           3        45.9 +j     22.9       51.3       0.8943
   TERMINAL TOTAL     45.9 +j     22.9       51.3       0.8945
100          1        -0.0 +j      0.0        0.0      -0.0577
100          2         0.0 +j      0.0        0.0       0.1371
100          3       -45.8 +j    -22.9       51.3       0.8945
   TERMINAL TOTAL    -45.8 +j    -22.9       51.2       0.8946

ELEMENT = "Line.L99"
100          1         0.0 +j     -0.0        0.0      -0.0577
100          2        -0.0 +j     -0.0        0.0       0.1371
100          3         0.0 +j     -0.0        0.0      -0.0795
   TERMINAL TOTAL      0.0 +j     -0.0        0.0      -0.0000
450          1         0.0 +j      0.0        0.0       0.5137
450          2         0.0 +j      0.0        0.0       0.8139
450          3        -0.0 +j      0.0        0.0      -0.9530
   TERMINAL TOTAL      0.0 +j      0.0        0.0       0.4203

ELEMENT = "Line.L118"
197          1       191.7 +j     97.4      215.0       0.8915
197          2        95.1 +j     47.8      106.4       0.8936
197          3       109.3 +j     54.8      122.3       0.8939
   TERMINAL TOTAL    396.1 +j    200.0      443.7       0.8927
101          1      -191.6 +j    -97.1      214.8       0.8919
101          2       -95.0 +j    -47.7      106.3       0.8937
101          3      -109.3 +j    -54.8      122.2       0.8939
   TERMINAL TOTAL   -395.9 +j   -199.6      443.4       0.8929

ELEMENT = "Line.L100"
101          3       109.3 +j     54.8      122.2       0.8939
   TERMINAL TOTAL    109.3 +j     54.8      122.2       0.8939
102          3      -109.1 +j    -54.7      122.1       0.8941
   TERMINAL TOTAL   -109.1 +j    -54.7      122.1       0.8941

ELEMENT = "Line.L101"
101          1       191.6 +j     97.1      214.8       0.8919
101          2        95.0 +j     47.7      106.3       0.8937
101          3         0.0 +j     -0.0        0.0      -0.0800
   TERMINAL TOTAL    286.6 +j    144.8      321.1       0.8925
105          1      -191.3 +j    -96.8      214.4       0.8924
105          2       -95.1 +j    -47.6      106.3       0.8942
105          3        -0.0 +j      0.0        0.0      -0.0806
   TERMINAL TOTAL   -286.4 +j   -144.4      320.7       0.8930

ELEMENT = "Line.L102"
102          3        87.3 +j     43.8       97.7       0.8940
   TERMINAL TOTAL     87.3 +j     43.8       97.7       0.8940
103          3       -87.2 +j    -43.6       97.5       0.8943
   TERMINAL TOTAL    -87.2 +j    -43.6       97.5       0.8943

ELEMENT = "Line.L103"
103          3        43.6 +j     21.9       48.8       0.8942
   TERMINAL TOTAL     43.6 +j     21.9       48.8       0.8942
104          3       -43.6 +j    -21.8       48.7       0.8944
   TERMINAL TOTAL    -43.6 +j    -21.8       48.7       0.8944

ELEMENT = "Line.L104"
105          2        95.1 +j     47.6      106.3       0.8941
   TERMINAL TOTAL     95.1 +j     47.6      106.3       0.8941
106          2       -95.0 +j    -47.5      106.2       0.8943
   TERMINAL TOTAL    -95.0 +j    -47.5      106.2       0.8943

ELEMENT = "Line.L105"
105          1       191.3 +j     96.8      214.4       0.8924
105          2        -0.0 +j     -0.0        0.0       0.1377
105          3         0.0 +j     -0.0        0.0      -0.0806
   TERMINAL TOTAL    191.3 +j     96.7      214.4       0.8924
108          1      -191.1 +j    -96.3      214.0       0.8931
108          2         0.0 +j      0.0        0.0       0.1380
108          3        -0.0 +j      0.0        0.0      -0.0816
   TERMINAL TOTAL   -191.1 +j    -96.3      214.0       0.8931

ELEMENT = "Line.L106"
106          2        47.5 +j     23.8       53.1       0.8942
   TERMINAL TOTAL     47.5 +j     23.8       53.1       0.8942
107          2       -47.5 +j    -23.7       53.1       0.8944
   TERMINAL TOTAL    -47.5 +j    -23.7       53.1       0.8944

ELEMENT = "Line.L107"
108          1       191.1 +j     96.3      214.0       0.8931
   TERMINAL TOTAL    191.1 +j     96.3      214.0       0.8931
109          1      -190.3 +j    -95.4      212.9       0.8939
   TERMINAL TOTAL   -190.3 +j    -95.4      212.9       0.8939

ELEMENT = "Line.L108"
108          1         0.0 +j     -0.0        0.0      -0.0571
108          2        -0.0 +j     -0.0        0.0       0.1380
108          3         0.0 +j     -0.0        0.0      -0.0816
   TERMINAL TOTAL      0.0 +j     -0.0        0.0      -0.0000
300          1        -0.0 +j      0.0        0.0      -0.6488
300          2        -0.0 +j     -0.0        0.0       0.7793
300          3         0.0 +j     -0.0        0.0      -0.9538
   TERMINAL TOTAL      0.0 +j     -0.0        0.0      -0.6118

ELEMENT = "Line.L109"
109          1       136.9 +j     68.7      153.2       0.8937
   TERMINAL TOTAL    136.9 +j     68.7      153.2       0.8937
110          1      -136.6 +j    -68.4      152.8       0.8940
   TERMINAL TOTAL   -136.6 +j    -68.4      152.8       0.8940

ELEMENT = "Line.L110"
110          1        26.7 +j     13.4       29.9       0.8943
   TERMINAL TOTAL     26.7 +j     13.4       29.9       0.8943
111          1       -26.7 +j    -13.3       29.8       0.8944
   TERMINAL TOTAL    -26.7 +j    -13.3       29.8       0.8944

ELEMENT = "Line.L111"
110          1       109.9 +j     55.1      122.9       0.8940
   TERMINAL TOTAL    109.9 +j     55.1      122.9       0.8940
112          1      -109.8 +j    -55.0      122.8       0.8941
   TERMINAL TOTAL   -109.8 +j    -55.0      122.8       0.8941

ELEMENT = "Line.L112"
112          1        82.5 +j     41.3       92.3       0.8940
   TERMINAL TOTAL     82.5 +j     41.3       92.3       0.8940
113          1       -82.3 +j    -41.1       92.0       0.8944
   TERMINAL TOTAL    -82.3 +j    -41.1       92.0       0.8944

ELEMENT = "Line.L113"
113          1        26.7 +j     13.4       29.9       0.8944
   TERMINAL TOTAL     26.7 +j     13.4       29.9       0.8944
114          1       -26.7 +j    -13.3       29.8       0.8944
   TERMINAL TOTAL    -26.7 +j    -13.3       29.8       0.8944

ELEMENT = "Line.L114"
135          1       278.9 +j    156.8      320.0       0.8717
135          2       323.8 +j    220.9      392.0       0.8261
135          3       234.7 +j    146.5      276.7       0.8484
   TERMINAL TOTAL    837.5 +j    524.2      988.0       0.8477
35           1      -278.4 +j   -156.1      319.2       0.8723
35           2      -323.2 +j   -219.7      390.8       0.8270
35           3      -234.7 +j   -145.9      276.4       0.8492
   TERMINAL TOTAL   -836.3 +j   -521.7      985.6       0.8485

ELEMENT = "Line.L116"
152          1       956.5 +j    272.4      994.5       0.9618
152          2       725.0 +j    158.5      742.1       0.9769
152          3       724.3 +j    125.6      735.1       0.9853
   TERMINAL TOTAL   2405.8 +j    556.5     2469.3       0.9743
52           1      -950.7 +j   -262.9      986.4       0.9638
52           2      -724.6 +j   -154.4      740.9       0.9780
52           3      -722.2 +j   -122.0      732.4       0.9860
   TERMINAL TOTAL  -2397.5 +j   -539.3     2457.4       0.9756

ELEMENT = "Line.L117"
160R         1       742.5 +j    107.2      750.2       0.9897
160R         2       497.3 +j     31.1      498.3       0.9981
160R         3       494.4 +j      3.5      494.4       1.0000
   TERMINAL TOTAL   1734.2 +j    141.7     1740.0       0.9967
67           1      -740.5 +j   -102.7      747.6       0.9905
67           2      -496.9 +j    -29.2      497.8       0.9983
67           3      -493.2 +j     -2.6      493.2       1.0000
   TERMINAL TOTAL  -1730.7 +j   -134.5     1735.9       0.9970

ELEMENT = "Line.SW1"
150R         1      1617.7 +j    681.7     1755.5       0.9215
150R         2      1163.9 +j    464.8     1253.3       0.9287
150R         3      1407.8 +j    529.4     1504.0       0.9360
   TERMINAL TOTAL   4189.4 +j   1675.9     4512.1       0.9285
149          1     -1617.7 +j   -681.7     1755.5       0.9215
149          2     -1163.9 +j   -464.8     1253.3       0.9287
149          3     -1407.8 +j   -529.4     1504.0       0.9360
   TERMINAL TOTAL  -4189.4 +j  -1675.9     4512.1       0.9285

ELEMENT = "Line.SW2"
13           1       956.5 +j    272.4      994.5       0.9618
13           2       725.0 +j    158.5      742.1       0.9769
13           3       724.3 +j    125.6      735.1       0.9853
   TERMINAL TOTAL   2405.8 +j    556.5     2469.3       0.9743
152          1      -956.5 +j   -272.4      994.5       0.9618
152          2      -725.0 +j   -158.5      742.1       0.9769
152          3      -724.3 +j   -125.6      735.1       0.9853
   TERMINAL TOTAL  -2405.8 +j   -556.5     2469.3       0.9743

ELEMENT = "Line.SW3"
18           1       278.9 +j    156.8      320.0       0.8717
18           2       323.8 +j    220.9      392.0       0.8261
18           3       234.7 +j    146.5      276.7       0.8484
   TERMINAL TOTAL    837.5 +j    524.2      988.0       0.8477
135          1      -278.9 +j   -156.8      320.0       0.8717
135          2      -323.8 +j   -220.9      392.0       0.8261
135          3      -234.7 +j   -146.5      276.7       0.8484
   TERMINAL TOTAL   -837.5 +j   -524.2      988.0       0.8477

ELEMENT = "Line.SW4"
60           1       742.5 +j    107.2      750.2       0.9897
60           2       497.3 +j     31.1      498.3       0.9981
60           3       494.4 +j      3.5      494.4       1.0000
   TERMINAL TOTAL   1734.2 +j    141.8     1740.0       0.9967
160          1      -742.5 +j   -107.2      750.2       0.9897
160          2      -497.3 +j    -31.1      498.3       0.9981
160          3      -494.4 +j     -3.5      494.4       1.0000
   TERMINAL TOTAL  -1734.2 +j   -141.8     1740.0       0.9967

ELEMENT = "Line.SW5"
97           1       191.7 +j     97.4      215.0       0.8915
97           2        95.1 +j     47.8      106.4       0.8936
97           3       109.3 +j     54.8      122.3       0.8939
   TERMINAL TOTAL    396.1 +j    200.0      443.7       0.8927
197          1      -191.7 +j    -97.4      215.0       0.8915
197          2       -95.1 +j    -47.8      106.4       0.8936
197          3      -109.3 +j    -54.8      122.3       0.8939
   TERMINAL TOTAL   -396.1 +j   -200.0      443.7       0.8927

ELEMENT = "Line.SW6"
61           1        -0.0 +j      0.0        0.0      -0.0359
61           2         0.0 +j      0.0        0.0       0.0341
61           3        -0.0 +j      0.0        0.0      -0.0019
   TERMINAL TOTAL     -0.0 +j      0.0        0.0      -0.0004
61S          1         0.0 +j     -0.0        0.0      -0.0359
61S          2        -0.0 +j     -0.0        0.0       0.0341
61S          3         0.0 +j     -0.0        0.0      -0.0019
   TERMINAL TOTAL      0.0 +j     -0.0        0.0      -0.0004

ELEMENT = "Line.SW7"
151          1         0.0 +j      0.0        0.0       1.0000
151          2         0.0 +j      0.0        0.0       1.0000
151          3         0.0 +j      0.0        0.0       1.0000
   TERMINAL TOTAL      0.0 +j      0.0        0.0       1.0000
300_OPEN     1         0.0 +j      0.0        0.0       1.0000
300_OPEN     2         0.0 +j      0.0        0.0       1.0000
300_OPEN     3         0.0 +j      0.0        0.0       1.0000
   TERMINAL TOTAL      0.0 +j      0.0        0.0       1.0000

ELEMENT = "Line.SW8"
54           1         0.0 +j      0.0        0.0       1.0000
   TERMINAL TOTAL      0.0 +j      0.0        0.0       1.0000
94_OPEN      1         0.0 +j      0.0        0.0       1.0000
   TERMINAL TOTAL      0.0 +j      0.0        0.0       1.0000

ELEMENT = "Transformer.XFM1"
61S          1         0.0 +j      0.0        0.0       0.0075
61S          2         0.0 +j      0.0        0.0       0.0013
61S          3        -0.0 +j      0.0        0.0      -0.0085
61S          0         0.0 +j      0.0        0.0       1.0000
   TERMINAL TOTAL     -0.0 +j      0.0        0.0      -0.0000
610          1         0.0 +j     -0.0        0.0      -0.8009
610          2         0.0 +j     -0.0        0.0      -0.8455
610          3         0.0 +j     -0.0        0.0      -0.9488
610          0         0.0 +j      0.0        0.0       1.0000
   TERMINAL TOTAL      0.0 +j     -0.0        0.0      -0.8639

ELEMENT = "Capacitor.C83"
83           1         0.0 +j   -217.5      217.5      -0.0000
83           2         0.0 +j   -216.7      216.7      -0.0000
83           3         0.0 +j   -212.4      212.4       1.0000
   TERMINAL TOTAL      0.0 +j   -646.6      646.6      -0.0000
83           0         0.0 +j      0.0        0.0       1.0000
83           0         0.0 +j      0.0        0.0       1.0000
83           0         0.0 +j      0.0        0.0       1.0000
   TERMINAL TOTAL      0.0 +j      0.0        0.0       1.0000

ELEMENT = "Capacitor.C88A"
88           1         0.0 +j    -53.5       53.5       1.0000
   TERMINAL TOTAL      0.0 +j    -53.5       53.5       1.0000
88           0         0.0 +j      0.0        0.0       1.0000
   TERMINAL TOTAL      0.0 +j      0.0        0.0       1.0000

ELEMENT = "Capacitor.C90B"
90           2         0.0 +j    -53.1       53.1       1.0000
   TERMINAL TOTAL      0.0 +j    -53.1       53.1       1.0000
90           0         0.0 +j      0.0        0.0       1.0000
   TERMINAL TOTAL      0.0 +j      0.0        0.0       1.0000

ELEMENT = "Capacitor.C92C"
92           3         0.0 +j    -53.0       53.0      -0.0000
   TERMINAL TOTAL      0.0 +j    -53.0       53.0      -0.0000
92           0         0.0 +j      0.0        0.0       1.0000
   TERMINAL TOTAL      0.0 +j      0.0        0.0       1.0000

ELEMENT = "Transformer.REG2A"
9            1        57.2 +j     28.7       64.0       0.8941
9            0         0.0 +j      0.0        0.0       1.0000
   TERMINAL TOTAL     57.2 +j     28.7       64.0       0.8941
9R           1       -57.2 +j    -28.7       64.0       0.8941
9R           0         0.0 +j      0.0        0.0       1.0000
   TERMINAL TOTAL    -57.2 +j    -28.7       64.0       0.8941

ELEMENT = "Transformer.REG3A"
25           1        37.9 +j     19.0       42.4       0.8940
25           0         0.0 +j      0.0        0.0       1.0000
   TERMINAL TOTAL     37.9 +j     19.0       42.4       0.8940
25R          1       -37.9 +j    -19.0       42.4       0.8940
25R          0         0.0 +j      0.0        0.0       1.0000
   TERMINAL TOTAL    -37.9 +j    -19.0       42.4       0.8940

ELEMENT = "Transformer.REG4A"
160          1       742.5 +j    107.2      750.2       0.9897
160          0         0.0 +j      0.0        0.0       1.0000
   TERMINAL TOTAL    742.5 +j    107.2      750.2       0.9897
160R         1      -742.5 +j   -107.2      750.2       0.9897
160R         0         0.0 +j      0.0        0.0       1.0000
   TERMINAL TOTAL   -742.5 +j   -107.2      750.2       0.9897

ELEMENT = "Transformer.REG3C"
25           3        51.8 +j     25.9       57.9       0.8942
25           0         0.0 +j      0.0        0.0       1.0000
   TERMINAL TOTAL     51.8 +j     25.9       57.9       0.8942
25R          3       -51.8 +j    -25.9       57.9       0.8942
25R          0         0.0 +j      0.0        0.0       1.0000
   TERMINAL TOTAL    -51.8 +j    -25.9       57.9       0.8942

ELEMENT = "Transformer.REG4B"
160          2       497.3 +j     31.1      498.3       0.9981
160          0         0.0 +j      0.0        0.0       1.0000
   TERMINAL TOTAL    497.3 +j     31.1      498.3       0.9981
160R         2      -497.3 +j    -31.1      498.3       0.9981
160R         0         0.0 +j      0.0        0.0       1.0000
   TERMINAL TOTAL   -497.3 +j    -31.1      498.3       0.9981

ELEMENT = "Transformer.REG4C"
160          3       494.4 +j      3.5      494.4       1.0000
160          0         0.0 +j      0.0        0.0       1.0000
   TERMINAL TOTAL    494.4 +j      3.5      494.4       1.0000
160R         3      -494.4 +j     -3.5      494.4       1.0000
160R         0         0.0 +j      0.0        0.0       1.0000
   TERMINAL TOTAL   -494.4 +j     -3.5      494.4       1.0000

= = = = = = = = = = = = = = = = = = =  = = = = = = = = = = =  = =

Power Conversion Elements

  Bus    Phase     kW   +j  kvar         kVA         PF

ELEMENT = "Load.S1A"
1            1      37.9 +j   18.9       42.3       0.8944
1            0       0.0 +j    0.0        0.0       1.0000
  TERMINAL TOTAL      37.9 +j     18.9       42.3       0.8944

ELEMENT = "Load.S2B"
2            2      26.5 +j   13.3       29.6       0.8944
2            0       0.0 +j    0.0        0.0       1.0000
  TERMINAL TOTAL      26.5 +j     13.3       29.6       0.8944

ELEMENT = "Load.S4C"
4            3      51.7 +j   25.8       57.8       0.8944
4            0       0.0 +j    0.0        0.0       1.0000
  TERMINAL TOTAL      51.7 +j     25.8       57.8       0.8944

ELEMENT = "Load.S5C"
5            3      26.6 +j   13.3       29.8       0.8944
5            0       0.0 +j    0.0        0.0       1.0000
  TERMINAL TOTAL      26.6 +j     13.3       29.8       0.8944

ELEMENT = "Load.S6C"
6            3      54.8 +j   27.4       61.2       0.8944
6            0       0.0 +j    0.0        0.0       1.0000
  TERMINAL TOTAL      54.8 +j     27.4       61.2       0.8944

ELEMENT = "Load.S7A"
7            1      18.9 +j    9.5       21.2       0.8944
7            0       0.0 +j    0.0        0.0       1.0000
  TERMINAL TOTAL      18.9 +j      9.5       21.2       0.8944

ELEMENT = "Load.S9A"
9            1      37.9 +j   18.9       42.3       0.8944
9            0       0.0 +j    0.0        0.0       1.0000
  TERMINAL TOTAL      37.9 +j     18.9       42.3       0.8944

ELEMENT = "Load.S10A"
10           1      19.0 +j    9.5       21.3       0.8944
10           0       0.0 +j    0.0        0.0       1.0000
  TERMINAL TOTAL      19.0 +j      9.5       21.3       0.8944

ELEMENT = "Load.S11A"
11           1      38.1 +j   19.1       42.6       0.8944
11           0       0.0 +j    0.0        0.0       1.0000
  TERMINAL TOTAL      38.1 +j     19.1       42.6       0.8944

ELEMENT = "Load.S12B"
12           2      26.5 +j   13.3       29.6       0.8944
12           0       0.0 +j    0.0        0.0       1.0000
  TERMINAL TOTAL      26.5 +j     13.3       29.6       0.8944

ELEMENT = "Load.S16C"
16           3      51.7 +j   25.8       57.8       0.8944
16           0       0.0 +j    0.0        0.0       1.0000
...